Version 4
SHEET 1 880 680
WIRE 192 96 112 96
WIRE 192 128 112 128
WIRE 448 144 368 144
WIRE 192 160 112 160
FLAG 112 96 in
FLAG 112 160 clk
FLAG 448 144 out
FLAG 112 128 0
SYMBOL SpecialFunctions\\sample 272 128 R0
WINDOW 3 -64 -52 Left 2
SYMATTR Value vhigh=1k vlow=-1k vt=0
SYMATTR InstName A1
