Version 4
SHEET 1 976 1224
WIRE 32 32 -32 32
WIRE 96 32 32 32
WIRE 576 96 576 64
WIRE 576 112 576 96
WIRE -32 160 -144 160
WIRE -16 160 -32 160
WIRE 16 160 -16 160
WIRE 144 160 112 160
WIRE 384 160 336 160
WIRE 496 160 480 160
WIRE 512 160 496 160
WIRE 672 160 640 160
WIRE 688 160 672 160
WIRE 848 160 816 160
WIRE 880 160 848 160
WIRE 64 224 64 208
WIRE -144 272 -144 160
WIRE 64 304 64 224
WIRE 368 304 64 304
WIRE 880 304 880 160
WIRE 880 304 464 304
WIRE -32 400 -32 160
WIRE 144 400 -32 400
WIRE 416 400 336 400
WIRE 480 400 416 400
FLAG 576 96 clk
FLAG 848 160 D
FLAG 496 160 Y
FLAG -16 160 U
FLAG 64 224 FB
FLAG 32 32 clk
FLAG 416 400 W
FLAG -144 352 0
FLAG 400 880 0
FLAG 480 880 det
FLAG 400 752 0
FLAG 480 752 detq
FLAG 400 512 0
FLAG 480 512 fin
FLAG 400 640 0
FLAG 480 640 deti
FLAG 672 160 S
FLAG 704 512 0
FLAG 784 512 sinc
SYMBOL sub 64 160 R0
SYMATTR InstName X1
SYMBOL gain 432 160 R0
SYMATTR InstName X2
SYMATTR SpiceLine k=1k
SYMBOL sgn 752 160 R0
SYMATTR InstName X4
SYMBOL delay 576 160 R0
SYMATTR InstName X5
SYMATTR SpiceLine td={0.00/fs}
SYMBOL clk -96 32 R0
SYMATTR InstName X6
SYMBOL connect 416 304 M0
SYMATTR InstName X7
SYMBOL pole 240 160 R0
SYMATTR SpiceLine pole={fs/nfft/100}
SYMATTR InstName X3
SYMBOL pole 240 400 R0
SYMATTR SpiceLine pole={fs/nfft/100}
SYMATTR InstName X8
SYMBOL bv -144 256 R0
SYMATTR InstName B1
SYMATTR Value V=sin(2*pi*V(fin)*time+pi/2)*vin
SYMBOL bv 496 880 R90
WINDOW 0 -32 56 VBottom 2
WINDOW 3 32 56 VTop 2
SYMATTR InstName Bdet
SYMATTR Value V=(V(s)*V(deti)+V(s)*V(detq))
SYMBOL bv 496 752 R90
WINDOW 0 -32 56 VBottom 2
WINDOW 3 32 56 VTop 2
SYMATTR InstName Bdetq
SYMATTR Value V=sin(2*pi*V(fin)*time+pi/2)
SYMBOL bv 496 512 R90
WINDOW 0 -32 56 VBottom 2
WINDOW 3 32 56 VTop 2
SYMATTR InstName Bfin
SYMATTR Value V=logspace(f1,f2, nfft/fs)
SYMBOL bv 496 640 R90
WINDOW 0 -32 56 VBottom 2
WINDOW 3 32 56 VTop 2
SYMATTR InstName Bdeti
SYMATTR Value V=sin(2*pi*V(fin)*time)
SYMBOL bv 800 512 R90
WINDOW 0 -32 56 VBottom 2
WINDOW 3 32 56 VTop 2
SYMATTR InstName Bsinc1
SYMATTR Value V=abs(sin(V(fin)*16)/(V(fin)*16))
TEXT 272 40 Left 2 !.tran {nfft/fs} uic
TEXT -496 16 Left 2 !.param nfft=2**14\n.param fs=1\n.param osr=64\n.param vin=0.8\n.param fb={fs/2/osr}\n.param fsig={fs/nfft*23}\n.param f1=0.01\n.param f2=1
TEXT 264 -64 Left 2 !.option plotwinsize={nfft}\n.optons numdgt=15
TEXT -496 320 Left 2 !.func fac() {0\n+ +sin(2*pi*fs/2**1*time)*0\n+ +sin(2*pi*fs/2**2*time)*0\n+ +sin(2*pi*fs/2**3*time)*0\n+ +sin(2*pi*fs/2**4*time)\n+ +sin(2*pi*fs/2**5*time)\n+ +sin(2*pi*fs/2**6*time)\n+ +sin(2*pi*fs/2**7*time)\n+ +sin(2*pi*fs/2**8*time)\n+}
TEXT -488 712 Left 2 !.func logstep(f0,f1,tspan,n) {exp(ln(f0)+ln(f1/f0)*int(time/tspan*n)/n)}\n.func linstep(f0,f1,tspan,n) {f0+(f1-f0)*int(time/tspan*n)/n}\n.func logspace(f0,f1,tspan) {exp(ln(f0)+ln(f1/f0)*time/tspan)}\n.func linspace(f0,f1,tspan) {f0+(f1-f0)*time/tspan}
