Version 4
SHEET 1 880 680
WIRE 176 112 128 112
WIRE 224 112 176 112
FLAG -144 112 0
FLAG 176 112 out
SYMBOL pole 32 112 R0
SYMATTR InstName X1
SYMBOL voltage -48 112 R90
WINDOW 0 -32 56 VBottom 2
WINDOW 3 32 56 VTop 2
WINDOW 123 60 56 VTop 2
WINDOW 39 0 0 Left 2
SYMATTR InstName V1
SYMATTR Value 0
SYMATTR Value2 AC 1
TEXT -148 -4 Left 2 !.ac dec 11 1u 1k
