Version 4
SHEET 1 884 680
WIRE 32 32 -32 32
WIRE 96 32 32 32
WIRE 80 96 80 64
WIRE 80 112 80 96
WIRE -16 160 -144 160
WIRE 16 160 -16 160
WIRE 208 160 144 160
WIRE 240 160 208 160
WIRE -144 192 -144 160
WIRE -144 304 -144 272
FLAG 80 96 clk
FLAG -144 304 0
FLAG -16 160 U
FLAG 32 32 clk
FLAG 208 160 rz
SYMBOL voltage -144 176 R0
WINDOW 123 0 0 Left 2
WINDOW 39 0 0 Left 2
SYMATTR InstName Vin
SYMATTR Value SINE(0 1 1)
SYMBOL clk -96 32 R0
SYMATTR InstName X6
SYMATTR SpiceLine fclk=5
SYMBOL return_to_zero 80 160 R0
SYMATTR SpiceLine td=0.2
SYMATTR InstName X1
TEXT 272 40 Left 2 !.tran 2
